!- Version
Version,
     8.6.0;     !-- Version Identifier

!- Building
Building,
     NONE,     !-- Name (default value)
     0.0,     !-- North Axis (default value)
     Suburbs,     !-- Terrain (default value)
     .04,     !-- Loads Convergence Tolerance Value (default value)
     .4,     !-- Temperature Convergence Tolerance Value (default value)
     FullExterior,     !-- Solar Distribution (default value)
     25,     !-- Maximum Number of Warmup Days (default value)
     6;     !-- Minimum Number of Warmup Days (default value)

!- Runperiod
Runperiod,
     default_period,     !-- Name
     1,     !-- Begin Month
     1,     !-- Begin Day of Month
     12,     !-- End Month
     31,     !-- End Day of Month
     UseWeatherFile,     !-- Day of Week for Start Day (default value)
     Yes,     !-- Use Weather File Holidays and Special Days (default value)
     Yes,     !-- Use Weather File Daylight Saving Period (default value)
     No,     !-- Apply Weekend Holiday Rule (default value)
     Yes,     !-- Use Weather File Rain Indicators (default value)
     Yes,     !-- Use Weather File Snow Indicators (default value)
     1,     !-- Number of Times Runperiod to be Repeated (default value)
     Yes,     !-- Increment Day of Week on repeat (default value)
     ;     !-- Start Year (value not required)


!- Zone
Zone,
     Thermal Zone 1 Thermal Zone,     !-- Name
     -0.0,     !-- Direction of Relative North
     26.8499999998369,     !-- X Origin
     3.71499936372736,     !-- Y Origin
     3.65306022077572e-11,     !-- Z Origin
     1,     !-- Type (default value)
     1,     !-- Multiplier (default value)
     autocalculate,     !-- Ceiling Height (default value)
     autocalculate,     !-- Volume (default value)
     autocalculate,     !-- Floor Area (default value)
     ,     !-- Zone Inside Convection Algorithm (value not required)
     ,     !-- Zone Outside Convection Algorithm (value not required)
     Yes;     !-- Part of Total Floor Area (default value)

!- Zone
Zone,
     Thermal Zone 10 Thermal Zone,     !-- Name
     -0.0,     !-- Direction of Relative North
     22.6799999998626,     !-- X Origin
     26.2599997912772,     !-- Y Origin
     3.65118196105089e-11,     !-- Z Origin
     1,     !-- Type (default value)
     1,     !-- Multiplier (default value)
     autocalculate,     !-- Ceiling Height (default value)
     autocalculate,     !-- Volume (default value)
     autocalculate,     !-- Floor Area (default value)
     ,     !-- Zone Inside Convection Algorithm (value not required)
     ,     !-- Zone Outside Convection Algorithm (value not required)
     Yes;     !-- Part of Total Floor Area (default value)

!- Zone
Zone,
     Thermal Zone 11 Thermal Zone,     !-- Name
     -0.0,     !-- Direction of Relative North
     15.2999999999045,     !-- X Origin
     14.2999999999127,     !-- Y Origin
     4.1968787821113e-11,     !-- Z Origin
     1,     !-- Type (default value)
     1,     !-- Multiplier (default value)
     autocalculate,     !-- Ceiling Height (default value)
     autocalculate,     !-- Volume (default value)
     autocalculate,     !-- Floor Area (default value)
     ,     !-- Zone Inside Convection Algorithm (value not required)
     ,     !-- Zone Outside Convection Algorithm (value not required)
     Yes;     !-- Part of Total Floor Area (default value)

!- Zone
Zone,
     Thermal Zone 12 Thermal Zone,     !-- Name
     -0.0,     !-- Direction of Relative North
     34.2094936914963,     !-- X Origin
     7.32999999995575,     !-- Y Origin
     3.65246428513261e-11,     !-- Z Origin
     1,     !-- Type (default value)
     1,     !-- Multiplier (default value)
     autocalculate,     !-- Ceiling Height (default value)
     autocalculate,     !-- Volume (default value)
     autocalculate,     !-- Floor Area (default value)
     ,     !-- Zone Inside Convection Algorithm (value not required)
     ,     !-- Zone Outside Convection Algorithm (value not required)
     Yes;     !-- Part of Total Floor Area (default value)

!- Zone
Zone,
     Thermal Zone 13 Thermal Zone,     !-- Name
     -0.0,     !-- Direction of Relative North
     4.34,     !-- X Origin
     18.4999999998859,     !-- Y Origin
     3.20574683005667e-12,     !-- Z Origin
     1,     !-- Type (default value)
     1,     !-- Multiplier (default value)
     autocalculate,     !-- Ceiling Height (default value)
     autocalculate,     !-- Volume (default value)
     autocalculate,     !-- Floor Area (default value)
     ,     !-- Zone Inside Convection Algorithm (value not required)
     ,     !-- Zone Outside Convection Algorithm (value not required)
     Yes;     !-- Part of Total Floor Area (default value)

!- Zone
Zone,
     Thermal Zone 14 Thermal Zone,     !-- Name
     -0.0,     !-- Direction of Relative North
     14.3399999999091,     !-- X Origin
     3.71499936372393,     !-- Y Origin
     7.30236392210178e-11,     !-- Z Origin
     1,     !-- Type (default value)
     1,     !-- Multiplier (default value)
     autocalculate,     !-- Ceiling Height (default value)
     autocalculate,     !-- Volume (default value)
     autocalculate,     !-- Floor Area (default value)
     ,     !-- Zone Inside Convection Algorithm (value not required)
     ,     !-- Zone Outside Convection Algorithm (value not required)
     Yes;     !-- Part of Total Floor Area (default value)

!- Zone
Zone,
     Thermal Zone 15 Thermal Zone,     !-- Name
     -0.0,     !-- Direction of Relative North
     10.0149999999277,     !-- X Origin
     3.71499936372275,     !-- Y Origin
     1.20417660201684e-12,     !-- Z Origin
     1,     !-- Type (default value)
     1,     !-- Multiplier (default value)
     autocalculate,     !-- Ceiling Height (default value)
     autocalculate,     !-- Volume (default value)
     autocalculate,     !-- Floor Area (default value)
     ,     !-- Zone Inside Convection Algorithm (value not required)
     ,     !-- Zone Outside Convection Algorithm (value not required)
     Yes;     !-- Part of Total Floor Area (default value)

!- Zone
Zone,
     Thermal Zone 16 Thermal Zone,     !-- Name
     -0.0,     !-- Direction of Relative North
     34.2100535247381,     !-- X Origin
     26.8949999998242,     !-- Y Origin
     3.65118196105089e-11,     !-- Z Origin
     1,     !-- Type (default value)
     1,     !-- Multiplier (default value)
     autocalculate,     !-- Ceiling Height (default value)
     autocalculate,     !-- Volume (default value)
     autocalculate,     !-- Floor Area (default value)
     ,     !-- Zone Inside Convection Algorithm (value not required)
     ,     !-- Zone Outside Convection Algorithm (value not required)
     Yes;     !-- Part of Total Floor Area (default value)

!- Zone
Zone,
     Thermal Zone 17 Thermal Zone,     !-- Name
     -0.0,     !-- Direction of Relative North
     4.31403333331925,     !-- X Origin
     4.10199999997861,     !-- Y Origin
     3.65155589265299e-11,     !-- Z Origin
     1,     !-- Type (default value)
     1,     !-- Multiplier (default value)
     autocalculate,     !-- Ceiling Height (default value)
     autocalculate,     !-- Volume (default value)
     autocalculate,     !-- Floor Area (default value)
     ,     !-- Zone Inside Convection Algorithm (value not required)
     ,     !-- Zone Outside Convection Algorithm (value not required)
     Yes;     !-- Part of Total Floor Area (default value)

!- Zone
Zone,
     Thermal Zone 18 Thermal Zone,     !-- Name
     -0.0,     !-- Direction of Relative North
     4.34,     !-- X Origin
     25.4999999998137,     !-- Y Origin
     3.11980033927036e-12,     !-- Z Origin
     1,     !-- Type (default value)
     1,     !-- Multiplier (default value)
     autocalculate,     !-- Ceiling Height (default value)
     autocalculate,     !-- Volume (default value)
     autocalculate,     !-- Floor Area (default value)
     ,     !-- Zone Inside Convection Algorithm (value not required)
     ,     !-- Zone Outside Convection Algorithm (value not required)
     Yes;     !-- Part of Total Floor Area (default value)

!- Zone
Zone,
     Thermal Zone 19 Thermal Zone,     !-- Name
     -0.0,     !-- Direction of Relative North
     18.3599999998859,     !-- X Origin
     26.2599999998347,     !-- Y Origin
     4.26509088474341e-11,     !-- Z Origin
     1,     !-- Type (default value)
     1,     !-- Multiplier (default value)
     autocalculate,     !-- Ceiling Height (default value)
     autocalculate,     !-- Volume (default value)
     autocalculate,     !-- Floor Area (default value)
     ,     !-- Zone Inside Convection Algorithm (value not required)
     ,     !-- Zone Outside Convection Algorithm (value not required)
     Yes;     !-- Part of Total Floor Area (default value)

!- Zone
Zone,
     Thermal Zone 2 Thermal Zone,     !-- Name
     -0.0,     !-- Direction of Relative North
     22.6800000529538,     !-- X Origin
     3.71499936372736,     !-- Y Origin
     3.65306022077572e-11,     !-- Z Origin
     1,     !-- Type (default value)
     1,     !-- Multiplier (default value)
     autocalculate,     !-- Ceiling Height (default value)
     autocalculate,     !-- Volume (default value)
     autocalculate,     !-- Floor Area (default value)
     ,     !-- Zone Inside Convection Algorithm (value not required)
     ,     !-- Zone Outside Convection Algorithm (value not required)
     Yes;     !-- Part of Total Floor Area (default value)

!- Zone
Zone,
     Thermal Zone 20 Thermal Zone,     !-- Name
     -0.0,     !-- Direction of Relative North
     31.7999999997974,     !-- X Origin
     8.99999999988709,     !-- Y Origin
     3.64319541351006e-11,     !-- Z Origin
     1,     !-- Type (default value)
     1,     !-- Multiplier (default value)
     autocalculate,     !-- Ceiling Height (default value)
     autocalculate,     !-- Volume (default value)
     autocalculate,     !-- Floor Area (default value)
     ,     !-- Zone Inside Convection Algorithm (value not required)
     ,     !-- Zone Outside Convection Algorithm (value not required)
     Yes;     !-- Part of Total Floor Area (default value)

!- Zone
Zone,
     Thermal Zone 21 Thermal Zone,     !-- Name
     -0.0,     !-- Direction of Relative North
     31.7999999998301,     !-- X Origin
     20.9999999999162,     !-- Y Origin
     3.64858259143613e-11,     !-- Z Origin
     1,     !-- Type (default value)
     1,     !-- Multiplier (default value)
     autocalculate,     !-- Ceiling Height (default value)
     autocalculate,     !-- Volume (default value)
     autocalculate,     !-- Floor Area (default value)
     ,     !-- Zone Inside Convection Algorithm (value not required)
     ,     !-- Zone Outside Convection Algorithm (value not required)
     Yes;     !-- Part of Total Floor Area (default value)

!- Zone
Zone,
     Thermal Zone 22 Thermal Zone,     !-- Name
     -0.0,     !-- Direction of Relative North
     4.31403333331925,     !-- X Origin
     3.10157347012661,     !-- Y Origin
     1.30989600509279e-12,     !-- Z Origin
     1,     !-- Type (default value)
     1,     !-- Multiplier (default value)
     autocalculate,     !-- Ceiling Height (default value)
     autocalculate,     !-- Volume (default value)
     autocalculate,     !-- Floor Area (default value)
     ,     !-- Zone Inside Convection Algorithm (value not required)
     ,     !-- Zone Outside Convection Algorithm (value not required)
     Yes;     !-- Part of Total Floor Area (default value)

!- Zone
Zone,
     Thermal Zone 23 Thermal Zone,     !-- Name
     -0.0,     !-- Direction of Relative North
     27.9999999998252,     !-- X Origin
     17.0500108552364,     !-- Y Origin
     4.84427667399377e-11,     !-- Z Origin
     1,     !-- Type (default value)
     1,     !-- Multiplier (default value)
     autocalculate,     !-- Ceiling Height (default value)
     autocalculate,     !-- Volume (default value)
     autocalculate,     !-- Floor Area (default value)
     ,     !-- Zone Inside Convection Algorithm (value not required)
     ,     !-- Zone Outside Convection Algorithm (value not required)
     Yes;     !-- Part of Total Floor Area (default value)

!- Zone
Zone,
     Thermal Zone 24 Thermal Zone,     !-- Name
     -0.0,     !-- Direction of Relative North
     31.7999999997974,     !-- X Origin
     10.9999999999628,     !-- Y Origin
     3.64889420546292e-11,     !-- Z Origin
     1,     !-- Type (default value)
     1,     !-- Multiplier (default value)
     autocalculate,     !-- Ceiling Height (default value)
     autocalculate,     !-- Volume (default value)
     autocalculate,     !-- Floor Area (default value)
     ,     !-- Zone Inside Convection Algorithm (value not required)
     ,     !-- Zone Outside Convection Algorithm (value not required)
     Yes;     !-- Part of Total Floor Area (default value)

!- Zone
Zone,
     Thermal Zone 25 Thermal Zone,     !-- Name
     -0.0,     !-- Direction of Relative North
     31.0457875058961,     !-- X Origin
     3.104999999991,     !-- Y Origin
     3.59990344492114e-11,     !-- Z Origin
     1,     !-- Type (default value)
     1,     !-- Multiplier (default value)
     autocalculate,     !-- Ceiling Height (default value)
     autocalculate,     !-- Volume (default value)
     autocalculate,     !-- Floor Area (default value)
     ,     !-- Zone Inside Convection Algorithm (value not required)
     ,     !-- Zone Outside Convection Algorithm (value not required)
     Yes;     !-- Part of Total Floor Area (default value)

!- Zone
Zone,
     Thermal Zone 26 Thermal Zone,     !-- Name
     -0.0,     !-- Direction of Relative North
     4.34,     !-- X Origin
     7.76804140434467,     !-- Y Origin
     -5.21470111542784e-12,     !-- Z Origin
     1,     !-- Type (default value)
     1,     !-- Multiplier (default value)
     autocalculate,     !-- Ceiling Height (default value)
     autocalculate,     !-- Volume (default value)
     autocalculate,     !-- Floor Area (default value)
     ,     !-- Zone Inside Convection Algorithm (value not required)
     ,     !-- Zone Outside Convection Algorithm (value not required)
     Yes;     !-- Part of Total Floor Area (default value)

!- Zone
Zone,
     Thermal Zone 27 Thermal Zone,     !-- Name
     -0.0,     !-- Direction of Relative North
     34.2349999996519,     !-- X Origin
     25.4999999998423,     !-- Y Origin
     3.67528910933046e-11,     !-- Z Origin
     1,     !-- Type (default value)
     1,     !-- Multiplier (default value)
     autocalculate,     !-- Ceiling Height (default value)
     autocalculate,     !-- Volume (default value)
     autocalculate,     !-- Floor Area (default value)
     ,     !-- Zone Inside Convection Algorithm (value not required)
     ,     !-- Zone Outside Convection Algorithm (value not required)
     Yes;     !-- Part of Total Floor Area (default value)

!- Zone
Zone,
     Thermal Zone 28 Thermal Zone,     !-- Name
     -0.0,     !-- Direction of Relative North
     34.2349999996519,     !-- X Origin
     11.0437132871333,     !-- Y Origin
     3.65676803548441e-11,     !-- Z Origin
     1,     !-- Type (default value)
     1,     !-- Multiplier (default value)
     autocalculate,     !-- Ceiling Height (default value)
     autocalculate,     !-- Volume (default value)
     autocalculate,     !-- Floor Area (default value)
     ,     !-- Zone Inside Convection Algorithm (value not required)
     ,     !-- Zone Outside Convection Algorithm (value not required)
     Yes;     !-- Part of Total Floor Area (default value)

!- Zone
Zone,
     Thermal Zone 29 Thermal Zone,     !-- Name
     -0.0,     !-- Direction of Relative North
     31.019999999809,     !-- X Origin
     26.2599997912772,     !-- Y Origin
     3.65118196105089e-11,     !-- Z Origin
     1,     !-- Type (default value)
     1,     !-- Multiplier (default value)
     autocalculate,     !-- Ceiling Height (default value)
     autocalculate,     !-- Volume (default value)
     autocalculate,     !-- Floor Area (default value)
     ,     !-- Zone Inside Convection Algorithm (value not required)
     ,     !-- Zone Outside Convection Algorithm (value not required)
     Yes;     !-- Part of Total Floor Area (default value)

!- Zone
Zone,
     Thermal Zone 3 Thermal Zone,     !-- Name
     -0.0,     !-- Direction of Relative North
     34.2349999996519,     !-- X Origin
     18.9999999998535,     !-- Y Origin
     3.65676803548441e-11,     !-- Z Origin
     1,     !-- Type (default value)
     1,     !-- Multiplier (default value)
     autocalculate,     !-- Ceiling Height (default value)
     autocalculate,     !-- Volume (default value)
     autocalculate,     !-- Floor Area (default value)
     ,     !-- Zone Inside Convection Algorithm (value not required)
     ,     !-- Zone Outside Convection Algorithm (value not required)
     Yes;     !-- Part of Total Floor Area (default value)

!- Zone
Zone,
     Thermal Zone 30 Thermal Zone,     !-- Name
     -0.0,     !-- Direction of Relative North
     18.3600019535585,     !-- X Origin
     3.71499936372275,     !-- Y Origin
     3.64551474768746e-11,     !-- Z Origin
     1,     !-- Type (default value)
     1,     !-- Multiplier (default value)
     autocalculate,     !-- Ceiling Height (default value)
     autocalculate,     !-- Volume (default value)
     autocalculate,     !-- Floor Area (default value)
     ,     !-- Zone Inside Convection Algorithm (value not required)
     ,     !-- Zone Outside Convection Algorithm (value not required)
     Yes;     !-- Part of Total Floor Area (default value)

!- Zone
Zone,
     Thermal Zone 31 Thermal Zone,     !-- Name
     -0.0,     !-- Direction of Relative North
     14.3399999999091,     !-- X Origin
     26.2599999998347,     !-- Y Origin
     4.26509088474341e-11,     !-- Z Origin
     1,     !-- Type (default value)
     1,     !-- Multiplier (default value)
     autocalculate,     !-- Ceiling Height (default value)
     autocalculate,     !-- Volume (default value)
     autocalculate,     !-- Floor Area (default value)
     ,     !-- Zone Inside Convection Algorithm (value not required)
     ,     !-- Zone Outside Convection Algorithm (value not required)
     Yes;     !-- Part of Total Floor Area (default value)

!- Zone
Zone,
     Thermal Zone 32 Thermal Zone,     !-- Name
     -0.0,     !-- Direction of Relative North
     4.34,     !-- X Origin
     25.4999999998137,     !-- Y Origin
     3.11980033927036e-12,     !-- Z Origin
     1,     !-- Type (default value)
     1,     !-- Multiplier (default value)
     autocalculate,     !-- Ceiling Height (default value)
     autocalculate,     !-- Volume (default value)
     autocalculate,     !-- Floor Area (default value)
     ,     !-- Zone Inside Convection Algorithm (value not required)
     ,     !-- Zone Outside Convection Algorithm (value not required)
     Yes;     !-- Part of Total Floor Area (default value)

!- Zone
Zone,
     Thermal Zone 33 Thermal Zone,     !-- Name
     -0.0,     !-- Direction of Relative North
     11.7000011156127,     !-- X Origin
     17.0500108552364,     !-- Y Origin
     4.84427667399377e-11,     !-- Z Origin
     1,     !-- Type (default value)
     1,     !-- Multiplier (default value)
     autocalculate,     !-- Ceiling Height (default value)
     autocalculate,     !-- Volume (default value)
     autocalculate,     !-- Floor Area (default value)
     ,     !-- Zone Inside Convection Algorithm (value not required)
     ,     !-- Zone Outside Convection Algorithm (value not required)
     Yes;     !-- Part of Total Floor Area (default value)

!- Zone
Zone,
     Thermal Zone 34 Thermal Zone,     !-- Name
     -0.0,     !-- Direction of Relative North
     10.0199999999359,     !-- X Origin
     26.8949999998335,     !-- Y Origin
     2.1667422095667e-11,     !-- Z Origin
     1,     !-- Type (default value)
     1,     !-- Multiplier (default value)
     autocalculate,     !-- Ceiling Height (default value)
     autocalculate,     !-- Volume (default value)
     autocalculate,     !-- Floor Area (default value)
     ,     !-- Zone Inside Convection Algorithm (value not required)
     ,     !-- Zone Outside Convection Algorithm (value not required)
     Yes;     !-- Part of Total Floor Area (default value)

!- Zone
Zone,
     Thermal Zone 35 Thermal Zone,     !-- Name
     -0.0,     !-- Direction of Relative North
     26.1999999998324,     !-- X Origin
     14.2999999999116,     !-- Y Origin
     4.18391005173745e-11,     !-- Z Origin
     1,     !-- Type (default value)
     1,     !-- Multiplier (default value)
     autocalculate,     !-- Ceiling Height (default value)
     autocalculate,     !-- Volume (default value)
     autocalculate,     !-- Floor Area (default value)
     ,     !-- Zone Inside Convection Algorithm (value not required)
     ,     !-- Zone Outside Convection Algorithm (value not required)
     Yes;     !-- Part of Total Floor Area (default value)

!- Zone
Zone,
     Thermal Zone 36 Thermal Zone,     !-- Name
     -0.0,     !-- Direction of Relative North
     6.6824999999569,     !-- X Origin
     26.8949999998335,     !-- Y Origin
     2.1667422095667e-11,     !-- Z Origin
     1,     !-- Type (default value)
     1,     !-- Multiplier (default value)
     autocalculate,     !-- Ceiling Height (default value)
     autocalculate,     !-- Volume (default value)
     autocalculate,     !-- Floor Area (default value)
     ,     !-- Zone Inside Convection Algorithm (value not required)
     ,     !-- Zone Outside Convection Algorithm (value not required)
     Yes;     !-- Part of Total Floor Area (default value)

!- Zone
Zone,
     Thermal Zone 37 Thermal Zone,     !-- Name
     -0.0,     !-- Direction of Relative North
     24.3999999998415,     !-- X Origin
     14.2999999999127,     !-- Y Origin
     4.1968787821113e-11,     !-- Z Origin
     1,     !-- Type (default value)
     1,     !-- Multiplier (default value)
     autocalculate,     !-- Ceiling Height (default value)
     autocalculate,     !-- Volume (default value)
     autocalculate,     !-- Floor Area (default value)
     ,     !-- Zone Inside Convection Algorithm (value not required)
     ,     !-- Zone Outside Convection Algorithm (value not required)
     Yes;     !-- Part of Total Floor Area (default value)

!- Zone
Zone,
     Thermal Zone 38 Thermal Zone,     !-- Name
     -0.0,     !-- Direction of Relative North
     34.2100535247381,     !-- X Origin
     26.8949999998242,     !-- Y Origin
     3.65118196105089e-11,     !-- Z Origin
     1,     !-- Type (default value)
     1,     !-- Multiplier (default value)
     autocalculate,     !-- Ceiling Height (default value)
     autocalculate,     !-- Volume (default value)
     autocalculate,     !-- Floor Area (default value)
     ,     !-- Zone Inside Convection Algorithm (value not required)
     ,     !-- Zone Outside Convection Algorithm (value not required)
     Yes;     !-- Part of Total Floor Area (default value)

!- Zone
Zone,
     Thermal Zone 39 Thermal Zone,     !-- Name
     -0.0,     !-- Direction of Relative North
     32.7499999997904,     !-- X Origin
     18.8999999998835,     !-- Y Origin
     4.57781223122881e-11,     !-- Z Origin
     1,     !-- Type (default value)
     1,     !-- Multiplier (default value)
     autocalculate,     !-- Ceiling Height (default value)
     autocalculate,     !-- Volume (default value)
     autocalculate,     !-- Floor Area (default value)
     ,     !-- Zone Inside Convection Algorithm (value not required)
     ,     !-- Zone Outside Convection Algorithm (value not required)
     Yes;     !-- Part of Total Floor Area (default value)

!- Zone
Zone,
     Thermal Zone 4 Thermal Zone,     !-- Name
     -0.0,     !-- Direction of Relative North
     4.34,     !-- X Origin
     21.3299999998685,     !-- Y Origin
     2.14367951370608e-11,     !-- Z Origin
     1,     !-- Type (default value)
     1,     !-- Multiplier (default value)
     autocalculate,     !-- Ceiling Height (default value)
     autocalculate,     !-- Volume (default value)
     autocalculate,     !-- Floor Area (default value)
     ,     !-- Zone Inside Convection Algorithm (value not required)
     ,     !-- Zone Outside Convection Algorithm (value not required)
     Yes;     !-- Part of Total Floor Area (default value)

!- Zone
Zone,
     Thermal Zone 40 Thermal Zone,     !-- Name
     -0.0,     !-- Direction of Relative North
     34.2349999996519,     !-- X Origin
     4.05000020850566,     !-- Y Origin
     3.66606503491188e-11,     !-- Z Origin
     1,     !-- Type (default value)
     1,     !-- Multiplier (default value)
     autocalculate,     !-- Ceiling Height (default value)
     autocalculate,     !-- Volume (default value)
     autocalculate,     !-- Floor Area (default value)
     ,     !-- Zone Inside Convection Algorithm (value not required)
     ,     !-- Zone Outside Convection Algorithm (value not required)
     Yes;     !-- Part of Total Floor Area (default value)

!- Zone
Zone,
     Thermal Zone 5 Thermal Zone,     !-- Name
     -0.0,     !-- Direction of Relative North
     34.2349999996519,     !-- X Origin
     22.6699999998598,     !-- Y Origin
     3.66722531871752e-11,     !-- Z Origin
     1,     !-- Type (default value)
     1,     !-- Multiplier (default value)
     autocalculate,     !-- Ceiling Height (default value)
     autocalculate,     !-- Volume (default value)
     autocalculate,     !-- Floor Area (default value)
     ,     !-- Zone Inside Convection Algorithm (value not required)
     ,     !-- Zone Outside Convection Algorithm (value not required)
     Yes;     !-- Part of Total Floor Area (default value)

!- Zone
Zone,
     Thermal Zone 6 Thermal Zone,     !-- Name
     -0.0,     !-- Direction of Relative North
     4.34,     !-- X Origin
     11.4999999999295,     !-- Y Origin
     3.20574683005667e-12,     !-- Z Origin
     1,     !-- Type (default value)
     1,     !-- Multiplier (default value)
     autocalculate,     !-- Ceiling Height (default value)
     autocalculate,     !-- Volume (default value)
     autocalculate,     !-- Floor Area (default value)
     ,     !-- Zone Inside Convection Algorithm (value not required)
     ,     !-- Zone Outside Convection Algorithm (value not required)
     Yes;     !-- Part of Total Floor Area (default value)

!- Zone
Zone,
     Thermal Zone 7 Thermal Zone,     !-- Name
     0,     !-- Direction of Relative North (default value)
     0,     !-- X Origin (default value)
     0,     !-- Y Origin (default value)
     0,     !-- Z Origin (default value)
     1,     !-- Type (default value)
     1,     !-- Multiplier (default value)
     autocalculate,     !-- Ceiling Height (default value)
     autocalculate,     !-- Volume (default value)
     autocalculate,     !-- Floor Area (default value)
     ,     !-- Zone Inside Convection Algorithm (value not required)
     ,     !-- Zone Outside Convection Algorithm (value not required)
     Yes;     !-- Part of Total Floor Area (default value)

!- Zone
Zone,
     Thermal Zone 8 Thermal Zone,     !-- Name
     -0.0,     !-- Direction of Relative North
     27.9999999998252,     !-- X Origin
     14.2999999999116,     !-- Y Origin
     4.19573476361867e-11,     !-- Z Origin
     1,     !-- Type (default value)
     1,     !-- Multiplier (default value)
     autocalculate,     !-- Ceiling Height (default value)
     autocalculate,     !-- Volume (default value)
     autocalculate,     !-- Floor Area (default value)
     ,     !-- Zone Inside Convection Algorithm (value not required)
     ,     !-- Zone Outside Convection Algorithm (value not required)
     Yes;     !-- Part of Total Floor Area (default value)

!- Zone
Zone,
     Thermal Zone 9 Thermal Zone,     !-- Name
     -0.0,     !-- Direction of Relative North
     26.8499999998369,     !-- X Origin
     26.2599997912772,     !-- Y Origin
     3.65118196105089e-11,     !-- Z Origin
     1,     !-- Type (default value)
     1,     !-- Multiplier (default value)
     autocalculate,     !-- Ceiling Height (default value)
     autocalculate,     !-- Volume (default value)
     autocalculate,     !-- Floor Area (default value)
     ,     !-- Zone Inside Convection Algorithm (value not required)
     ,     !-- Zone Outside Convection Algorithm (value not required)
     Yes;     !-- Part of Total Floor Area (default value)


!- Buildingsurface:detailed
Buildingsurface:detailed,
     Surface 313,     !-- Name
     Wall,     !-- Surface Type
     Interior Wall,     !-- Construction Name
     Thermal Zone 1 Thermal Zone,     !-- Zone Name
     Surface,     !-- Outside Boundary Condition
     Surface 285,     !-- Outside Boundary Condition Object
     NoSun,     !-- Sun Exposure
     NoWind,     !-- Wind Exposure
     autocalculate,     !-- View Factor to Ground (default value)
     autocalculate,     !-- Number of Vertices (default value)
     4.19578750605903,     !-- Vertex 1 X-coordinate
     -0.609999363736161,     !-- Vertex 1 Y-coordinate
     3.05000000000875,     !-- Vertex 1 Z-coordinate
     4.19578750605915,     !-- Vertex 2 X-coordinate
     -0.609999363736356,     !-- Vertex 2 Y-coordinate
     -5.31567758545828e-13,     !-- Vertex 2 Z-coordinate
     4.19578750605932,     !-- Vertex 3 X-coordinate
     -2.16573425861512e-15,     !-- Vertex 3 Y-coordinate
     -2.78162842025588e-14,     !-- Vertex 3 Z-coordinate
     4.19578750605919,     !-- Vertex 4 X-coordinate
     2.81545453617752e-14,     !-- Vertex 4 Y-coordinate
     3.05000000000941;     !-- Vertex 4 Z-coordinate

!- Buildingsurface:detailed
Buildingsurface:detailed,
     Surface 44,     !-- Name
     Floor,     !-- Surface Type
     Floor / Ceiling construction,     !-- Construction Name
     Thermal Zone 1 Thermal Zone,     !-- Zone Name
     Adiabatic,     !-- Outside Boundary Condition
     ,     !-- Outside Boundary Condition Object (value not required)
     NoSun,     !-- Sun Exposure
     NoWind,     !-- Wind Exposure
     autocalculate,     !-- View Factor to Ground (default value)